PDE 1994  6  9  0 33 16.40 -13.8300  -67.5600 637.0 6.9 6.8 NORTHERN BOLIVIA                        
event name:     060994A        
time shift:     29.0000
half duration:   0.0000
latitude:      -13.8200
longitude:     -67.2500
depth:         647.1000
Mrr:             0.0000
Mtt:             0.0000
Mpp:             0.0000
Mrt:         -2503000.0
Mrp:             0.0000
Mtp:             0.0000
