 PDE 2017 11 19 15  9  2.90 -21.5000  168.6000  13.0 6.5 6.6 LOYALTY ISLANDS
event name:     201711191509A
time shift:      6.2697
half duration:   4.2000
latitude:      -21.4433
longitude:     168.5490
depth:           9.5142
Mrr:      -7.723062e+25
Mtt:       2.892020e+25
Mpp:       4.831042e+25
Mrt:      -3.441323e+24
Mrp:       2.488982e+25
Mtp:      -3.406812e+25
